// This file is part of aldFoam
// Copyright 2019 Argonne UChicago LLC

FoamFile
{
    version     2.0;
    format      ascii;
    class       volScalarField;
    location    "0";
    object      beta;
}

dimensions      [0 0 0 0 0 0 0];

internalField   uniform 0;

boundaryField
{
    inlet
    {
        type            calculated;
        value           uniform 0;
    }
    outlet
    {
        type            calculated;
        value           uniform 0;
    }
    Wall
    {
        type            calculated;
        value           uniform 0;
    }
    substrate
    {
        type            calculated;
        value           uniform 0;
    }
}
